Circuit: * C:\Users\austi\OneDrive - UW\Desktop\UW\Junior\B EE 361\Transmission Line Project\Conclusion.asc

.OP point found by inspection.

Date: Mon May 25 13:17:05 2020
Total elapsed time: 0.358 seconds.

tnom = 27
temp = 27
method = modified trap
totiter = 100046
traniter = 100046
tranpoints = 50024
accept = 50021
rejected = 3
matrix size = 7
fillins = 3
solver = Normal
Matrix Compiler1: 308 bytes object code size  0.1/0.0/[0.0]
Matrix Compiler2: 521 bytes object code size  0.0/0.1/[0.0]

