Circuit: * C:\Users\austi\OneDrive - UW\Desktop\UW\Junior\B EE 361\Transmission Line Project\Problem 5.asc

.OP point found by inspection.

Date: Thu Jun 04 21:37:48 2020
Total elapsed time: 0.042 seconds.

tnom = 27
temp = 27
method = modified trap
totiter = 2106
traniter = 2106
tranpoints = 1054
accept = 1051
rejected = 3
matrix size = 8
fillins = 3
solver = Normal
Matrix Compiler1:      23 opcodes  0.1/[0.0]/0.0
Matrix Compiler2: 588 bytes object code size  0.0/0.1/[0.0]

