Circuit: * C:\Users\austi\OneDrive - UW\Desktop\UW\Junior\B EE 361\Transmission Line Project\Problem 3.asc

.OP point found by inspection.

Date: Thu Jun 04 21:47:29 2020
Total elapsed time: 0.026 seconds.

tnom = 27
temp = 27
method = modified trap
totiter = 2124
traniter = 2124
tranpoints = 1063
accept = 1058
rejected = 5
matrix size = 8
fillins = 3
solver = Normal
Matrix Compiler1: 394 bytes object code size  0.1/0.1/[0.0]
Matrix Compiler2: 588 bytes object code size  0.0/0.1/[0.0]

