Circuit: * C:\Users\austi\OneDrive - UW\Desktop\UW\Junior\B EE 361\Transmission Line Project\Problem 6.asc

.OP point found by inspection.

Date: Thu Jun 04 20:16:38 2020
Total elapsed time: 0.040 seconds.

tnom = 27
temp = 27
method = modified trap
totiter = 2166
traniter = 2166
tranpoints = 1084
accept = 1068
rejected = 16
matrix size = 8
fillins = 3
solver = Normal
Matrix Compiler1: 366 bytes object code size  0.1/0.1/[0.0]
Matrix Compiler2: 600 bytes object code size  0.1/0.1/[0.0]

